*************************************************
**
** written by Amir Hosein Sakhaei
**
** sakhaei.a@gmail.com 
**
** last modified: 03/August/2018
** University of Exeter
**
**     #####
**    #### _\_  ________
**    ##=-[.].]| \      \
**    #(    _\ |  |------|
**     #   __| |  ||||||||
**      \  _/  |  ||||||||
**   .--'--'-. |  | ____ |
**  / __      `|__|[o__o]|
**_(____nm_______ /____\____
*************************************************
**				START OF THE INPUT		       **
*************************************************
**
**@@@@@@@@@@@@@@@@@@@@@@@@@@@@@@@@@@@@@@@@@@@@@@@
**
** 				HEADING information			   **
**
**@@@@@@@@@@@@@@@@@@@@@@@@@@@@@@@@@@@@@@@@@@@@@@@
**
*Heading
*Preprint, echo=NO, model=NO, history=NO, contact=NO
**
**@@@@@@@@@@@@@@@@@@@@@@@@@@@@@@@@@@@@@@@@@@@@@@@
** 				PARTS information			   **
**@@@@@@@@@@@@@@@@@@@@@@@@@@@@@@@@@@@@@@@@@@@@@@@
**
**
** PARTS
**
*Part, name=Sample
*End Part
**
**  
**@@@@@@@@@@@@@@@@@@@@@@@@@@@@@@@@@@@@@@@@@@@@@@@
** 				ASSEMBLY information		   **
**@@@@@@@@@@@@@@@@@@@@@@@@@@@@@@@@@@@@@@@@@@@@@@@
**  
**
** ASSEMBLY
**
*Assembly, name=Assembly
**  
*Instance, name=Sample-1, part=Sample
*Node
      1, 0.0151300002, 0.000199999995, 0.00499999989
      2, 0.0151300002, 0.000150000007, 0.00499999989
      3, 0.0151300002,  9.99999975e-05, 0.00499999989
      4, 0.0151300002,  4.99999987e-05, 0.00499999989
      5, 0.0151300002,           0., 0.00499999989
      6, 0.0151300002, 0.000199999995, 0.00461538462
      7, 0.0151300002, 0.000150000007, 0.00461538462
      8, 0.0151300002,  9.99999975e-05, 0.00461538462
      9, 0.0151300002,  4.99999987e-05, 0.00461538462
     10, 0.0151300002,           0., 0.00461538462
     11, 0.0151300002, 0.000199999995, 0.00423076935
     12, 0.0151300002, 0.000150000007, 0.00423076935
     13, 0.0151300002,  9.99999975e-05, 0.00423076935
     14, 0.0151300002,  4.99999987e-05, 0.00423076935
     15, 0.0151300002,           0., 0.00423076935
     16, 0.0151300002, 0.000199999995, 0.00384615385
     17, 0.0151300002, 0.000150000007, 0.00384615385
     18, 0.0151300002,  9.99999975e-05, 0.00384615385
     19, 0.0151300002,  4.99999987e-05, 0.00384615385
     20, 0.0151300002,           0., 0.00384615385
** ... 10089 like lines cut
***********************************************
** Element Definitions: UEL elements: #3D20_NL_COS_TUCKER (20nodes)
**********************************************
**
** ELEMENT NUMBER U1
**
*USER ELEMENT, TYPE=U1, NODES=20, COORDINATES=3, PROPERTIES=15, UNSYMM
 1,2,3,4,5,6
 2,1,2,3
 3,1,2,3,4,5,6
 4,1,2,3
 5,1,2,3,4,5,6
 6,1,2,3
 7,1,2,3,4,5,6
 8,1,2,3
 9,1,2,3
 10,1,2,3
 11,1,2,3
 12,1,2,3
 13,1,2,3,4,5,6
 14,1,2,3
 15,1,2,3,4,5,6
 16,1,2,3
 17,1,2,3,4,5,6
 18,1,2,3
 19,1,2,3,4,5,6
 20,1,2,3 
**
*ELEMENT, TYPE=U1, ELSET=UEL_3D20_NL_COS
10001, 72, 2739, 2, 2736, 7, 2741, 77, 2733, 2734, 2735, 2737, 2732, 71, 2740, 1, 2738, 6, 2742, 76, 2731
10002, 73, 2749, 3, 2747, 8, 2750, 78, 2744, 2745, 2746, 2748, 2743, 72, 2739, 2, 2736, 7, 2741, 77, 2733
10003, 74, 2757, 4, 2755, 9, 2758, 79, 2752, 2753, 2754, 2756, 2751, 73, 2749, 3, 2747, 8, 2750, 78, 2744
10004, 75, 2765, 5, 2763, 10, 2766, 80, 2760, 2761, 2762, 2764, 2759, 74, 2757, 4, 2755, 9, 2758, 79, 2752
10005, 77, 2741, 7, 2770, 12, 2773, 82, 2769, 2732, 2737, 2771, 2768, 76, 2742, 6, 2772, 11, 2774, 81, 2767
10006, 78, 2750, 8, 2777, 13, 2779, 83, 2776, 2743, 2748, 2778, 2775, 77, 2741, 7, 2770, 12, 2773, 82, 2769
10007, 79, 2758, 9, 2782, 14, 2784, 84, 2781, 2751, 2756, 2783, 2780, 78, 2750, 8, 2777, 13, 2779, 83, 2776
10008, 80, 2766, 10, 2787, 15, 2789, 85, 2786, 2759, 2764, 2788, 2785, 79, 2758, 9, 2782, 14, 2784, 84, 2781
10009, 82, 2773, 12, 2793, 17, 2796, 87, 2792, 2768, 2771, 2794, 2791, 81, 2774, 11, 2795, 16, 2797, 86, 2790
10010, 83, 2779, 13, 2800, 18, 2802, 88, 2799, 2775, 2778, 2801, 2798, 82, 2773, 12, 2793, 17, 2796, 87, 2792
10011, 84, 2784, 14, 2805, 19, 2807, 89, 2804, 2780, 2783, 2806, 2803, 83, 2779, 13, 2800, 18, 2802, 88, 2799
10012, 85, 2789, 15, 2810, 20, 2812, 90, 2809, 2785, 2788, 2811, 2808, 84, 2784, 14, 2805, 19, 2807, 89, 2804
10013, 87, 2796, 17, 2816, 22, 2819, 92, 2815, 2791, 2794, 2817, 2814, 86, 2797, 16, 2818, 21, 2820, 91, 2813
10014, 88, 2802, 18, 2823, 23, 2825, 93, 2822, 2798, 2801, 2824, 2821, 87, 2796, 17, 2816, 22, 2819, 92, 2815
10015, 89, 2807, 19, 2828, 24, 2830, 94, 2827, 2803, 2806, 2829, 2826, 88, 2802, 18, 2823, 23, 2825, 93, 2822
10016, 90, 2812, 20, 2833, 25, 2835, 95, 2832, 2808, 2811, 2834, 2831, 89, 2807, 19, 2828, 24, 2830, 94, 2827
10017, 92, 2819, 22, 2839, 27, 2842, 97, 2838, 2814, 2817, 2840, 2837, 91, 2820, 21, 2841, 26, 2843, 96, 2836
10018, 93, 2825, 23, 2846, 28, 2848, 98, 2845, 2821, 2824, 2847, 2844, 92, 2819, 22, 2839, 27, 2842, 97, 2838
10019, 94, 2830, 24, 2851, 29, 2853, 99, 2850, 2826, 2829, 2852, 2849, 93, 2825, 23, 2846, 28, 2848, 98, 2845
10020, 95, 2835, 25, 2856, 30, 2858, 100, 2855, 2831, 2834, 2857, 2854, 94, 2830, 24, 2851, 29, 2853, 99, 2850
** ... 1956 like lines cut
**
*UEL PROPERTY, ELSET=UEL_3D20_NL_COS
1.,     0.,     0.,     0.,     1.,     0.,    1e+06,  1e+06
  2e+11,    0.5,   0.75,  5e-10,  300000., 1.,  1e+11
**
***********************************************
**
** Overlay Element Definitions : Brick elements (overlay)
**
**********************************************
**
*Element, type=C3D20, ELSET=Overlay_elements
   1,    71,    72,    77,    76,     1,     2,     7,     6,  2734,  2733,  2732,  2731,  2735,  2736,  2737,
       2738,  2740,  2739,  2741,  2742
   2,    72,    73,    78,    77,     2,     3,     8,     7,  2745,  2744,  2743,  2733,  2746,  2747,  2748,
       2736,  2739,  2749,  2750,  2741
   3,    73,    74,    79,    78,     3,     4,     9,     8,  2753,  2752,  2751,  2744,  2754,  2755,  2756,
       2747,  2749,  2757,  2758,  2750
   4,    74,    75,    80,    79,     4,     5,    10,     9,  2761,  2760,  2759,  2752,  2762,  2763,  2764,
       2755,  2757,  2765,  2766,  2758
   5,    76,    77,    82,    81,     6,     7,    12,    11,  2732,  2769,  2768,  2767,  2737,  2770,  2771,
       2772,  2742,  2741,  2773,  2774
   6,    77,    78,    83,    82,     7,     8,    13,    12,  2743,  2776,  2775,  2769,  2748,  2777,  2778,
       2770,  2741,  2750,  2779,  2773
   7,    78,    79,    84,    83,     8,     9,    14,    13,  2751,  2781,  2780,  2776,  2756,  2782,  2783,
       2777,  2750,  2758,  2784,  2779
   8,    79,    80,    85,    84,     9,    10,    15,    14,  2759,  2786,  2785,  2781,  2764,  2787,  2788,
       2782,  2758,  2766,  2789,  2784
   9,    81,    82,    87,    86,    11,    12,    17,    16,  2768,  2792,  2791,  2790,  2771,  2793,  2794,
       2795,  2774,  2773,  2796,  2797
  10,    82,    83,    88,    87,    12,    13,    18,    17,  2775,  2799,  2798,  2792,  2778,  2800,  2801,
       2793,  2773,  2779,  2802,  2796
** ... 3932 like lines cut
** Section: Section-1
*Solid Section, elset=Overlay_elements, material=Material-1
,
*End Instance
**  
**
*Nset, nset=fixedX_face, instance=Sample-1
  2661,  2662,  2663,  2664,  2665,  2666,  2667,  2668,  2669,  2670,  2671,  2672,  2673,  2674,  2675,  2676
  2677,  2678,  2679,  2680,  2681,  2682,  2683,  2684,  2685,  2686,  2687,  2688,  2689,  2690,  2691,  2692
  2693,  2694,  2695,  2696,  2697,  2698,  2699,  2700,  2701,  2702,  2703,  2704,  2705,  2706,  2707,  2708
  2709,  2710,  2711,  2712,  2713,  2714,  2715,  2716,  2717,  2718,  2719,  2720,  2721,  2722,  2723,  2724
  2725,  2726,  2727,  2728,  2729,  2730,  9919,  9920,  9921,  9922,  9927,  9928,  9929,  9932,  9933,  9934
  9937,  9938,  9939,  9942,  9943,  9944,  9947,  9948,  9950,  9951,  9953,  9954,  9956,  9957,  9958,  9961
  9962,  9964,  9965,  9967,  9968,  9970,  9971,  9972,  9975,  9976,  9978,  9979,  9981,  9982,  9984,  9985
  9986,  9989,  9990,  9992,  9993,  9995,  9996,  9998,  9999, 10000, 10003, 10004, 10006, 10007, 10009, 10010
 10012, 10013, 10014, 10017, 10018, 10020, 10021, 10023, 10024, 10026, 10027, 10028, 10031, 10032, 10034, 10035
 10037, 10038, 10040, 10041, 10042, 10045, 10046, 10048, 10049, 10051, 10052, 10054, 10055, 10056, 10059, 10060
 10062, 10063, 10065, 10066, 10068, 10069, 10070, 10073, 10074, 10076, 10077, 10079, 10080, 10082, 10083, 10084
 10087, 10088, 10090, 10091, 10093, 10094, 10096, 10097, 10098, 10101, 10102, 10104, 10105, 10107, 10108
*Nset, nset=fixedY_face, instance=Sample-1
     5,    10,    15,    20,    25,    30,    35,    40,    45,    50,    55,    60,    65,    70,    75,    80
    85,    90,    95,   100,   105,   110,   115,   120,   125,   130,   135,   140,   145,   150,   155,   160
   165,   170,   175,   180,   185,   190,   195,   200,   205,   210,   215,   220,   225,   230,   235,   240
   245,   250,   255,   260,   265,   270,   275,   280,   285,   290,   295,   300,   305,   310,   315,   320
   325,   330,   335,   340,   345,   350,   355,   360,   365,   370,   375,   380,   385,   390,   395,   400
   405,   410,   415,   420,   425,   430,   435,   440,   445,   450,   455,   460,   465,   470,   475,   480
   485,   490,   495,   500,   505,   510,   515,   520,   525,   530,   535,   540,   545,   550,   555,   560
   565,   570,   575,   580,   585,   590,   595,   600,   605,   610,   615,   620,   625,   630,   635,   640
   645,   650,   655,   660,   665,   670,   675,   680,   685,   690,   695,   700,   705,   710,   715,   720
   725,   730,   735,   740,   745,   750,   755,   760,   765,   770,   775,   780,   785,   790,   795,   800
   805,   810,   815,   820,   825,   830,   835,   840,   845,   850,   855,   860,   865,   870,   875,   880
   885,   890,   895,   900,   905,   910,   915,   920,   925,   930,   935,   940,   945,   950,   955,   960
   965,   970,   975,   980,   985,   990,   995,  1000,  1005,  1010,  1015,  1020,  1025,  1030,  1035,  1040
  1045,  1050,  1055,  1060,  1065,  1070,  1075,  1080,  1085,  1090,  1095,  1100,  1105,  1110,  1115,  1120
  1125,  1130,  1135,  1140,  1145,  1150,  1155,  1160,  1165,  1170,  1175,  1180,  1185,  1190,  1195,  1200
  1205,  1210,  1215,  1220,  1225,  1230,  1235,  1240,  1245,  1250,  1255,  1260,  1265,  1270,  1275,  1280
  1285,  1290,  1295,  1300,  1305,  1310,  1315,  1320,  1325,  1330,  1335,  1340,  1345,  1350,  1355,  1360
  1365,  1370,  1375,  1380,  1385,  1390,  1395,  1400,  1405,  1410,  1415,  1420,  1425,  1430,  1435,  1440
  1445,  1450,  1455,  1460,  1465,  1470,  1475,  1480,  1485,  1490,  1495,  1500,  1505,  1510,  1515,  1520
  1525,  1530,  1535,  1540,  1545,  1550,  1555,  1560,  1565,  1570,  1575,  1580,  1585,  1590,  1595,  1600
** ... 80 like lines cut
*Nset, nset=fixedZ_face, instance=Sample-1
    66,    67,    68,    69,    70,   136,   137,   138,   139,   140,   206,   207,   208,   209,   210,   276
   277,   278,   279,   280,   346,   347,   348,   349,   350,   416,   417,   418,   419,   420,   486,   487
   488,   489,   490,   556,   557,   558,   559,   560,   626,   627,   628,   629,   630,   696,   697,   698
   699,   700,   766,   767,   768,   769,   770,   836,   837,   838,   839,   840,   906,   907,   908,   909
   910,   976,   977,   978,   979,   980,  1046,  1047,  1048,  1049,  1050,  1116,  1117,  1118,  1119,  1120
  1186,  1187,  1188,  1189,  1190,  1256,  1257,  1258,  1259,  1260,  1326,  1327,  1328,  1329,  1330,  1396
  1397,  1398,  1399,  1400,  1466,  1467,  1468,  1469,  1470,  1536,  1537,  1538,  1539,  1540,  1606,  1607
  1608,  1609,  1610,  1676,  1677,  1678,  1679,  1680,  1746,  1747,  1748,  1749,  1750,  1816,  1817,  1818
  1819,  1820,  1886,  1887,  1888,  1889,  1890,  1956,  1957,  1958,  1959,  1960,  2026,  2027,  2028,  2029
  2030,  2096,  2097,  2098,  2099,  2100,  2166,  2167,  2168,  2169,  2170,  2236,  2237,  2238,  2239,  2240
  2306,  2307,  2308,  2309,  2310,  2376,  2377,  2378,  2379,  2380,  2446,  2447,  2448,  2449,  2450,  2516
  2517,  2518,  2519,  2520,  2586,  2587,  2588,  2589,  2590,  2656,  2657,  2658,  2659,  2660,  2726,  2727
  2728,  2729,  2730,  3021,  3024,  3026,  3027,  3028,  3031,  3032,  3033,  3036,  3037,  3038,  3041,  3042
  3221,  3223,  3224,  3225,  3227,  3228,  3230,  3231,  3233,  3412,  3414,  3415,  3416,  3418,  3419,  3421
  3422,  3424,  3603,  3605,  3606,  3607,  3609,  3610,  3612,  3613,  3615,  3794,  3796,  3797,  3798,  3800
  3801,  3803,  3804,  3806,  3985,  3987,  3988,  3989,  3991,  3992,  3994,  3995,  3997,  4176,  4178,  4179
  4180,  4182,  4183,  4185,  4186,  4188,  4367,  4369,  4370,  4371,  4373,  4374,  4376,  4377,  4379,  4558
  4560,  4561,  4562,  4564,  4565,  4567,  4568,  4570,  4749,  4751,  4752,  4753,  4755,  4756,  4758,  4759
  4761,  4940,  4942,  4943,  4944,  4946,  4947,  4949,  4950,  4952,  5131,  5133,  5134,  5135,  5137,  5138
  5140,  5141,  5143,  5322,  5324,  5325,  5326,  5328,  5329,  5331,  5332,  5334,  5513,  5515,  5516,  5517
** ... 14 like lines cut
*Nset, nset=Xloading_face, instance=Sample-1
    1,    2,    3,    4,    5,    6,    7,    8,    9,   10,   11,   12,   13,   14,   15,   16
   17,   18,   19,   20,   21,   22,   23,   24,   25,   26,   27,   28,   29,   30,   31,   32
   33,   34,   35,   36,   37,   38,   39,   40,   41,   42,   43,   44,   45,   46,   47,   48
   49,   50,   51,   52,   53,   54,   55,   56,   57,   58,   59,   60,   61,   62,   63,   64
   65,   66,   67,   68,   69,   70, 2735, 2736, 2737, 2738, 2746, 2747, 2748, 2754, 2755, 2756
 2762, 2763, 2764, 2770, 2771, 2772, 2777, 2778, 2782, 2783, 2787, 2788, 2793, 2794, 2795, 2800
 2801, 2805, 2806, 2810, 2811, 2816, 2817, 2818, 2823, 2824, 2828, 2829, 2833, 2834, 2839, 2840
 2841, 2846, 2847, 2851, 2852, 2856, 2857, 2862, 2863, 2864, 2869, 2870, 2874, 2875, 2879, 2880
 2885, 2886, 2887, 2892, 2893, 2897, 2898, 2902, 2903, 2908, 2909, 2910, 2915, 2916, 2920, 2921
 2925, 2926, 2931, 2932, 2933, 2938, 2939, 2943, 2944, 2948, 2949, 2954, 2955, 2956, 2961, 2962
 2966, 2967, 2971, 2972, 2977, 2978, 2979, 2984, 2985, 2989, 2990, 2994, 2995, 3000, 3001, 3002
 3007, 3008, 3012, 3013, 3017, 3018, 3023, 3024, 3025, 3030, 3031, 3035, 3036, 3040, 3041
*Nset, nset=Yloading_face, instance=Sample-1
     1,     6,    11,    16,    21,    26,    31,    36,    41,    46,    51,    56,    61,    66,    71,    76
    81,    86,    91,    96,   101,   106,   111,   116,   121,   126,   131,   136,   141,   146,   151,   156
   161,   166,   171,   176,   181,   186,   191,   196,   201,   206,   211,   216,   221,   226,   231,   236
   241,   246,   251,   256,   261,   266,   271,   276,   281,   286,   291,   296,   301,   306,   311,   316
   321,   326,   331,   336,   341,   346,   351,   356,   361,   366,   371,   376,   381,   386,   391,   396
   401,   406,   411,   416,   421,   426,   431,   436,   441,   446,   451,   456,   461,   466,   471,   476
   481,   486,   491,   496,   501,   506,   511,   516,   521,   526,   531,   536,   541,   546,   551,   556
   561,   566,   571,   576,   581,   586,   591,   596,   601,   606,   611,   616,   621,   626,   631,   636
   641,   646,   651,   656,   661,   666,   671,   676,   681,   686,   691,   696,   701,   706,   711,   716
   721,   726,   731,   736,   741,   746,   751,   756,   761,   766,   771,   776,   781,   786,   791,   796
   801,   806,   811,   816,   821,   826,   831,   836,   841,   846,   851,   856,   861,   866,   871,   876
   881,   886,   891,   896,   901,   906,   911,   916,   921,   926,   931,   936,   941,   946,   951,   956
   961,   966,   971,   976,   981,   986,   991,   996,  1001,  1006,  1011,  1016,  1021,  1026,  1031,  1036
  1041,  1046,  1051,  1056,  1061,  1066,  1071,  1076,  1081,  1086,  1091,  1096,  1101,  1106,  1111,  1116
  1121,  1126,  1131,  1136,  1141,  1146,  1151,  1156,  1161,  1166,  1171,  1176,  1181,  1186,  1191,  1196
  1201,  1206,  1211,  1216,  1221,  1226,  1231,  1236,  1241,  1246,  1251,  1256,  1261,  1266,  1271,  1276
  1281,  1286,  1291,  1296,  1301,  1306,  1311,  1316,  1321,  1326,  1331,  1336,  1341,  1346,  1351,  1356
  1361,  1366,  1371,  1376,  1381,  1386,  1391,  1396,  1401,  1406,  1411,  1416,  1421,  1426,  1431,  1436
  1441,  1446,  1451,  1456,  1461,  1466,  1471,  1476,  1481,  1486,  1491,  1496,  1501,  1506,  1511,  1516
  1521,  1526,  1531,  1536,  1541,  1546,  1551,  1556,  1561,  1566,  1571,  1576,  1581,  1586,  1591,  1596
** ... 80 like lines cut
*Nset, nset=ALL_NODES, instance=Sample-1, generate
  1,  10109,    1
**
**
**
*Elset, elset=_Pload_surface_S6, internal, instance=Sample-1, generate
    1,  1973,     4
*Surface, type=ELEMENT, name=Pload_surface
_Pload_surface_S6, S6
*End Assembly
**@@@@@@@@@@@@@@@@@@@@@@@@@@@@@@@@@@@@@@@@@@@@@@@
** 				MATERIAL information		   **
**			     (Overlay elements)
**@@@@@@@@@@@@@@@@@@@@@@@@@@@@@@@@@@@@@@@@@@@@@@@
** 
** MATERIALS
** 
*Material, name=Material-1
*Elastic
 1e-08, 0.03
** ----------------------------------------------------------------
**
**@@@@@@@@@@@@@@@@@@@@@@@@@@@@@@@@@@@@@@@@@@@@@@@
** 		 		STEPS DEFINITIONS 		   	   **
**@@@@@@@@@@@@@@@@@@@@@@@@@@@@@@@@@@@@@@@@@@@@@@@
**
** STEP: Step-1
** 
*Step, name=Step-1, nlgeom=YES, inc=10000
*Static
0.1, 1., 1e-08, 0.1
** 
** BOUNDARY CONDITIONS
** 
** Name: fixX Type: Displacement/Rotation
*Boundary
fixedX_face, 1, 1
fixedX_face, 2, 2
fixedX_face, 3, 3
fixedX_face, 4, 4
fixedX_face, 5, 5
fixedX_face, 6, 6
** Name: fixZ Type: Displacement/Rotation
**Boundary
**fixedZ_face, 3, 3
** Name: loading Type: Displacement/Rotation
*Boundary
Xloading_face, 3, 3
Xloading_face, 4, 4
Xloading_face, 5, 5
Xloading_face, 6, 6
Xloading_face, 2, 2, -0.2e-3
** 
** OUTPUT REQUESTS
** 
*Restart, write, frequency=0
** 
** FIELD OUTPUT: F-Output-1
** 
*Output, field, variable=PRESELECT
** 
** HISTORY OUTPUT: fixedX_face_history
** 
*Output, history
*Node Output, nset=fixedX_face
RF1, RF2, RF3, U1, U2, U3
** 
** HISTORY OUTPUT: fixedY_face_history
** 
**Node Output, nset=fixedY_face
**RF1, RF2, RF3, U1, U2, U3
** 
** HISTORY OUTPUT: Xloading_face_history
** 
*Node Output, nset=Xloading_face
RF1, RF2, RF3, U1, U2, U3
** 
** 
** HISTORY OUTPUT: H-Output-1
** 
*Output, history, variable=PRESELECT
*End Step
