*************************************************
**
** written by Amir Hosein Sakhaei
**
** sakhaei.a@gmail.com 
**
** last modified: 03/August/2018
** University of Exeter
**
**     #####
**    #### _\_  ________
**    ##=-[.].]| \      \
**    #(    _\ |  |------|
**     #   __| |  ||||||||
**      \  _/  |  ||||||||
**   .--'--'-. |  | ____ |
**  / __      `|__|[o__o]|
**_(____nm_______ /____\____
*************************************************
**				START OF THE INPUT		       **
*************************************************
**
**@@@@@@@@@@@@@@@@@@@@@@@@@@@@@@@@@@@@@@@@@@@@@@@
**
** 				HEADING information			   **
**
**@@@@@@@@@@@@@@@@@@@@@@@@@@@@@@@@@@@@@@@@@@@@@@@
**
*Heading
*Preprint, echo=NO, model=NO, history=NO, contact=NO
**
**@@@@@@@@@@@@@@@@@@@@@@@@@@@@@@@@@@@@@@@@@@@@@@@
** 				PARTS information			   **
**@@@@@@@@@@@@@@@@@@@@@@@@@@@@@@@@@@@@@@@@@@@@@@@
**
**
** PARTS
**
*Part, name=Sample
*End Part
**
**  
**@@@@@@@@@@@@@@@@@@@@@@@@@@@@@@@@@@@@@@@@@@@@@@@
** 				ASSEMBLY information		   **
**@@@@@@@@@@@@@@@@@@@@@@@@@@@@@@@@@@@@@@@@@@@@@@@
**  
**
** ASSEMBLY
**
*Assembly, name=Assembly
**  
*Instance, name=Sample-1, part=Sample
*Node
      1,      0.00532, 0.000199999995, 0.00499999989
      2,      0.00532, 0.000150000007, 0.00499999989
      3,      0.00532,  9.99999975e-05, 0.00499999989
      4,      0.00532,  4.99999987e-05, 0.00499999989
      5,      0.00532,           0., 0.00499999989
      6,      0.00532, 0.000199999995, 0.00461538462
      7,      0.00532, 0.000150000007, 0.00461538462
      8,      0.00532,  9.99999975e-05, 0.00461538462
      9,      0.00532,  4.99999987e-05, 0.00461538462
     10,      0.00532,           0., 0.00461538462
     11,      0.00532, 0.000199999995, 0.00423076935
     12,      0.00532, 0.000150000007, 0.00423076935
     13,      0.00532,  9.99999975e-05, 0.00423076935
     14,      0.00532,  4.99999987e-05, 0.00423076935
     15,      0.00532,           0., 0.00423076935
     16,      0.00532, 0.000199999995, 0.00384615385
     17,      0.00532, 0.000150000007, 0.00384615385
     18,      0.00532,  9.99999975e-05, 0.00384615385
     19,      0.00532,  4.99999987e-05, 0.00384615385
     20,      0.00532,           0., 0.00384615385
** ... 3564 like lines cut
***********************************************
** Element Definitions: UEL elements: #3D20_NL_COS_TUCKER (20nodes)
**********************************************
**
** ELEMENT NUMBER U1
**
*USER ELEMENT, TYPE=U1, NODES=20, COORDINATES=3, PROPERTIES=15, UNSYMM
 1,2,3,4,5,6
 2,1,2,3
 3,1,2,3,4,5,6
 4,1,2,3
 5,1,2,3,4,5,6
 6,1,2,3
 7,1,2,3,4,5,6
 8,1,2,3
 9,1,2,3
 10,1,2,3
 11,1,2,3
 12,1,2,3
 13,1,2,3,4,5,6
 14,1,2,3
 15,1,2,3,4,5,6
 16,1,2,3
 17,1,2,3,4,5,6
 18,1,2,3
 19,1,2,3,4,5,6
 20,1,2,3 
**
*ELEMENT, TYPE=U1, ELSET=UEL_3D20_NL_COS
10001, 72, 989, 2, 986, 7, 991, 77, 983, 984, 985, 987, 982, 71, 990, 1, 988, 6, 992, 76, 981
10002, 73, 999, 3, 997, 8, 1000, 78, 994, 995, 996, 998, 993, 72, 989, 2, 986, 7, 991, 77, 983
10003, 74, 1007, 4, 1005, 9, 1008, 79, 1002, 1003, 1004, 1006, 1001, 73, 999, 3, 997, 8, 1000, 78, 994
10004, 75, 1015, 5, 1013, 10, 1016, 80, 1010, 1011, 1012, 1014, 1009, 74, 1007, 4, 1005, 9, 1008, 79, 1002
10005, 77, 991, 7, 1020, 12, 1023, 82, 1019, 982, 987, 1021, 1018, 76, 992, 6, 1022, 11, 1024, 81, 1017
10006, 78, 1000, 8, 1027, 13, 1029, 83, 1026, 993, 998, 1028, 1025, 77, 991, 7, 1020, 12, 1023, 82, 1019
10007, 79, 1008, 9, 1032, 14, 1034, 84, 1031, 1001, 1006, 1033, 1030, 78, 1000, 8, 1027, 13, 1029, 83, 1026
10008, 80, 1016, 10, 1037, 15, 1039, 85, 1036, 1009, 1014, 1038, 1035, 79, 1008, 9, 1032, 14, 1034, 84, 1031
10009, 82, 1023, 12, 1043, 17, 1046, 87, 1042, 1018, 1021, 1044, 1041, 81, 1024, 11, 1045, 16, 1047, 86, 1040
10010, 83, 1029, 13, 1050, 18, 1052, 88, 1049, 1025, 1028, 1051, 1048, 82, 1023, 12, 1043, 17, 1046, 87, 1042
10011, 84, 1034, 14, 1055, 19, 1057, 89, 1054, 1030, 1033, 1056, 1053, 83, 1029, 13, 1050, 18, 1052, 88, 1049
10012, 85, 1039, 15, 1060, 20, 1062, 90, 1059, 1035, 1038, 1061, 1058, 84, 1034, 14, 1055, 19, 1057, 89, 1054
10013, 87, 1046, 17, 1066, 22, 1069, 92, 1065, 1041, 1044, 1067, 1064, 86, 1047, 16, 1068, 21, 1070, 91, 1063
10014, 88, 1052, 18, 1073, 23, 1075, 93, 1072, 1048, 1051, 1074, 1071, 87, 1046, 17, 1066, 22, 1069, 92, 1065
10015, 89, 1057, 19, 1078, 24, 1080, 94, 1077, 1053, 1056, 1079, 1076, 88, 1052, 18, 1073, 23, 1075, 93, 1072
10016, 90, 1062, 20, 1083, 25, 1085, 95, 1082, 1058, 1061, 1084, 1081, 89, 1057, 19, 1078, 24, 1080, 94, 1077
10017, 92, 1069, 22, 1089, 27, 1092, 97, 1088, 1064, 1067, 1090, 1087, 91, 1070, 21, 1091, 26, 1093, 96, 1086
10018, 93, 1075, 23, 1096, 28, 1098, 98, 1095, 1071, 1074, 1097, 1094, 92, 1069, 22, 1089, 27, 1092, 97, 1088
10019, 94, 1080, 24, 1101, 29, 1103, 99, 1100, 1076, 1079, 1102, 1099, 93, 1075, 23, 1096, 28, 1098, 98, 1095
10020, 95, 1085, 25, 1106, 30, 1108, 100, 1105, 1081, 1084, 1107, 1104, 94, 1080, 24, 1101, 29, 1103, 99, 1100
** ... 656 like lines cut
**
*UEL PROPERTY, ELSET=UEL_3D20_NL_COS
1.,     0.,     0.,     0.,     1.,     0.,    1e+06,  1e+06
  2e+11,    0.5,   0.75,  5e-10,  300000., 1.,  1e+11
**
***********************************************
**
** Overlay Element Definitions : Brick elements (overlay)
**
**********************************************
**
*Element, type=C3D20, ELSET=Overlay_elements
  1,   71,   72,   77,   76,    1,    2,    7,    6,  984,  983,  982,  981,  985,  986,  987,
      988,  990,  989,  991,  992
  2,   72,   73,   78,   77,    2,    3,    8,    7,  995,  994,  993,  983,  996,  997,  998,
      986,  989,  999, 1000,  991
  3,   73,   74,   79,   78,    3,    4,    9,    8, 1003, 1002, 1001,  994, 1004, 1005, 1006,
      997,  999, 1007, 1008, 1000
  4,   74,   75,   80,   79,    4,    5,   10,    9, 1011, 1010, 1009, 1002, 1012, 1013, 1014,
     1005, 1007, 1015, 1016, 1008
  5,   76,   77,   82,   81,    6,    7,   12,   11,  982, 1019, 1018, 1017,  987, 1020, 1021,
     1022,  992,  991, 1023, 1024
  6,   77,   78,   83,   82,    7,    8,   13,   12,  993, 1026, 1025, 1019,  998, 1027, 1028,
     1020,  991, 1000, 1029, 1023
  7,   78,   79,   84,   83,    8,    9,   14,   13, 1001, 1031, 1030, 1026, 1006, 1032, 1033,
     1027, 1000, 1008, 1034, 1029
  8,   79,   80,   85,   84,    9,   10,   15,   14, 1009, 1036, 1035, 1031, 1014, 1037, 1038,
     1032, 1008, 1016, 1039, 1034
  9,   81,   82,   87,   86,   11,   12,   17,   16, 1018, 1042, 1041, 1040, 1021, 1043, 1044,
     1045, 1024, 1023, 1046, 1047
 10,   82,   83,   88,   87,   12,   13,   18,   17, 1025, 1049, 1048, 1042, 1028, 1050, 1051,
     1043, 1023, 1029, 1052, 1046
** ... 1332 like lines cut
** Section: Section-1
*Solid Section, elset=Overlay_elements, material=Material-1
,
*End Instance
**  
**
*Nset, nset=fixedX_face, instance=Sample-1
  911,  912,  913,  914,  915,  916,  917,  918,  919,  920,  921,  922,  923,  924,  925,  926
  927,  928,  929,  930,  931,  932,  933,  934,  935,  936,  937,  938,  939,  940,  941,  942
  943,  944,  945,  946,  947,  948,  949,  950,  951,  952,  953,  954,  955,  956,  957,  958
  959,  960,  961,  962,  963,  964,  965,  966,  967,  968,  969,  970,  971,  972,  973,  974
  975,  976,  977,  978,  979,  980, 3394, 3395, 3396, 3397, 3402, 3403, 3404, 3407, 3408, 3409
 3412, 3413, 3414, 3417, 3418, 3419, 3422, 3423, 3425, 3426, 3428, 3429, 3431, 3432, 3433, 3436
 3437, 3439, 3440, 3442, 3443, 3445, 3446, 3447, 3450, 3451, 3453, 3454, 3456, 3457, 3459, 3460
 3461, 3464, 3465, 3467, 3468, 3470, 3471, 3473, 3474, 3475, 3478, 3479, 3481, 3482, 3484, 3485
 3487, 3488, 3489, 3492, 3493, 3495, 3496, 3498, 3499, 3501, 3502, 3503, 3506, 3507, 3509, 3510
 3512, 3513, 3515, 3516, 3517, 3520, 3521, 3523, 3524, 3526, 3527, 3529, 3530, 3531, 3534, 3535
 3537, 3538, 3540, 3541, 3543, 3544, 3545, 3548, 3549, 3551, 3552, 3554, 3555, 3557, 3558, 3559
 3562, 3563, 3565, 3566, 3568, 3569, 3571, 3572, 3573, 3576, 3577, 3579, 3580, 3582, 3583
*Nset, nset=fixedY_face, instance=Sample-1
    5,   10,   15,   20,   25,   30,   35,   40,   45,   50,   55,   60,   65,   70,   75,   80
   85,   90,   95,  100,  105,  110,  115,  120,  125,  130,  135,  140,  145,  150,  155,  160
  165,  170,  175,  180,  185,  190,  195,  200,  205,  210,  215,  220,  225,  230,  235,  240
  245,  250,  255,  260,  265,  270,  275,  280,  285,  290,  295,  300,  305,  310,  315,  320
  325,  330,  335,  340,  345,  350,  355,  360,  365,  370,  375,  380,  385,  390,  395,  400
  405,  410,  415,  420,  425,  430,  435,  440,  445,  450,  455,  460,  465,  470,  475,  480
  485,  490,  495,  500,  505,  510,  515,  520,  525,  530,  535,  540,  545,  550,  555,  560
  565,  570,  575,  580,  585,  590,  595,  600,  605,  610,  615,  620,  625,  630,  635,  640
  645,  650,  655,  660,  665,  670,  675,  680,  685,  690,  695,  700,  705,  710,  715,  720
  725,  730,  735,  740,  745,  750,  755,  760,  765,  770,  775,  780,  785,  790,  795,  800
  805,  810,  815,  820,  825,  830,  835,  840,  845,  850,  855,  860,  865,  870,  875,  880
  885,  890,  895,  900,  905,  910,  915,  920,  925,  930,  935,  940,  945,  950,  955,  960
  965,  970,  975,  980, 1010, 1013, 1015, 1016, 1036, 1037, 1039, 1059, 1060, 1062, 1082, 1083
 1085, 1105, 1106, 1108, 1128, 1129, 1131, 1151, 1152, 1154, 1174, 1175, 1177, 1197, 1198, 1200
 1220, 1221, 1223, 1243, 1244, 1246, 1266, 1267, 1269, 1289, 1290, 1292, 1312, 1314, 1315, 1328
 1329, 1342, 1343, 1356, 1357, 1370, 1371, 1384, 1385, 1398, 1399, 1412, 1413, 1426, 1427, 1440
 1441, 1454, 1455, 1468, 1469, 1482, 1483, 1503, 1505, 1506, 1519, 1520, 1533, 1534, 1547, 1548
 1561, 1562, 1575, 1576, 1589, 1590, 1603, 1604, 1617, 1618, 1631, 1632, 1645, 1646, 1659, 1660
 1673, 1674, 1694, 1696, 1697, 1710, 1711, 1724, 1725, 1738, 1739, 1752, 1753, 1766, 1767, 1780
 1781, 1794, 1795, 1808, 1809, 1822, 1823, 1836, 1837, 1850, 1851, 1864, 1865, 1885, 1887, 1888
** ... 15 like lines cut
*Nset, nset=fixedZ_face, instance=Sample-1
   66,   67,   68,   69,   70,  136,  137,  138,  139,  140,  206,  207,  208,  209,  210,  276
  277,  278,  279,  280,  346,  347,  348,  349,  350,  416,  417,  418,  419,  420,  486,  487
  488,  489,  490,  556,  557,  558,  559,  560,  626,  627,  628,  629,  630,  696,  697,  698
  699,  700,  766,  767,  768,  769,  770,  836,  837,  838,  839,  840,  906,  907,  908,  909
  910,  976,  977,  978,  979,  980, 1271, 1274, 1276, 1277, 1278, 1281, 1282, 1283, 1286, 1287
 1288, 1291, 1292, 1471, 1473, 1474, 1475, 1477, 1478, 1480, 1481, 1483, 1662, 1664, 1665, 1666
 1668, 1669, 1671, 1672, 1674, 1853, 1855, 1856, 1857, 1859, 1860, 1862, 1863, 1865, 2044, 2046
 2047, 2048, 2050, 2051, 2053, 2054, 2056, 2235, 2237, 2238, 2239, 2241, 2242, 2244, 2245, 2247
 2426, 2428, 2429, 2430, 2432, 2433, 2435, 2436, 2438, 2617, 2619, 2620, 2621, 2623, 2624, 2626
 2627, 2629, 2808, 2810, 2811, 2812, 2814, 2815, 2817, 2818, 2820, 2999, 3001, 3002, 3003, 3005
 3006, 3008, 3009, 3011, 3190, 3192, 3193, 3194, 3196, 3197, 3199, 3200, 3202, 3381, 3383, 3384
 3385, 3387, 3388, 3390, 3391, 3393, 3572, 3574, 3575, 3576, 3578, 3579, 3581, 3582, 3584
*Nset, nset=Xloading_face, instance=Sample-1
    1,    2,    3,    4,    5,    6,    7,    8,    9,   10,   11,   12,   13,   14,   15,   16
   17,   18,   19,   20,   21,   22,   23,   24,   25,   26,   27,   28,   29,   30,   31,   32
   33,   34,   35,   36,   37,   38,   39,   40,   41,   42,   43,   44,   45,   46,   47,   48
   49,   50,   51,   52,   53,   54,   55,   56,   57,   58,   59,   60,   61,   62,   63,   64
   65,   66,   67,   68,   69,   70,  985,  986,  987,  988,  996,  997,  998, 1004, 1005, 1006
 1012, 1013, 1014, 1020, 1021, 1022, 1027, 1028, 1032, 1033, 1037, 1038, 1043, 1044, 1045, 1050
 1051, 1055, 1056, 1060, 1061, 1066, 1067, 1068, 1073, 1074, 1078, 1079, 1083, 1084, 1089, 1090
 1091, 1096, 1097, 1101, 1102, 1106, 1107, 1112, 1113, 1114, 1119, 1120, 1124, 1125, 1129, 1130
 1135, 1136, 1137, 1142, 1143, 1147, 1148, 1152, 1153, 1158, 1159, 1160, 1165, 1166, 1170, 1171
 1175, 1176, 1181, 1182, 1183, 1188, 1189, 1193, 1194, 1198, 1199, 1204, 1205, 1206, 1211, 1212
 1216, 1217, 1221, 1222, 1227, 1228, 1229, 1234, 1235, 1239, 1240, 1244, 1245, 1250, 1251, 1252
 1257, 1258, 1262, 1263, 1267, 1268, 1273, 1274, 1275, 1280, 1281, 1285, 1286, 1290, 1291
*Nset, nset=Yloading_face, instance=Sample-1
    1,    6,   11,   16,   21,   26,   31,   36,   41,   46,   51,   56,   61,   66,   71,   76
   81,   86,   91,   96,  101,  106,  111,  116,  121,  126,  131,  136,  141,  146,  151,  156
  161,  166,  171,  176,  181,  186,  191,  196,  201,  206,  211,  216,  221,  226,  231,  236
  241,  246,  251,  256,  261,  266,  271,  276,  281,  286,  291,  296,  301,  306,  311,  316
  321,  326,  331,  336,  341,  346,  351,  356,  361,  366,  371,  376,  381,  386,  391,  396
  401,  406,  411,  416,  421,  426,  431,  436,  441,  446,  451,  456,  461,  466,  471,  476
  481,  486,  491,  496,  501,  506,  511,  516,  521,  526,  531,  536,  541,  546,  551,  556
  561,  566,  571,  576,  581,  586,  591,  596,  601,  606,  611,  616,  621,  626,  631,  636
  641,  646,  651,  656,  661,  666,  671,  676,  681,  686,  691,  696,  701,  706,  711,  716
  721,  726,  731,  736,  741,  746,  751,  756,  761,  766,  771,  776,  781,  786,  791,  796
  801,  806,  811,  816,  821,  826,  831,  836,  841,  846,  851,  856,  861,  866,  871,  876
  881,  886,  891,  896,  901,  906,  911,  916,  921,  926,  931,  936,  941,  946,  951,  956
  961,  966,  971,  976,  981,  988,  990,  992, 1017, 1022, 1024, 1040, 1045, 1047, 1063, 1068
 1070, 1086, 1091, 1093, 1109, 1114, 1116, 1132, 1137, 1139, 1155, 1160, 1162, 1178, 1183, 1185
 1201, 1206, 1208, 1224, 1229, 1231, 1247, 1252, 1254, 1270, 1275, 1277, 1293, 1298, 1300, 1316
 1320, 1330, 1334, 1344, 1348, 1358, 1362, 1372, 1376, 1386, 1390, 1400, 1404, 1414, 1418, 1428
 1432, 1442, 1446, 1456, 1460, 1470, 1474, 1484, 1489, 1491, 1507, 1511, 1521, 1525, 1535, 1539
 1549, 1553, 1563, 1567, 1577, 1581, 1591, 1595, 1605, 1609, 1619, 1623, 1633, 1637, 1647, 1651
 1661, 1665, 1675, 1680, 1682, 1698, 1702, 1712, 1716, 1726, 1730, 1740, 1744, 1754, 1758, 1768
 1772, 1782, 1786, 1796, 1800, 1810, 1814, 1824, 1828, 1838, 1842, 1852, 1856, 1866, 1871, 1873
** ... 15 like lines cut
*Nset, nset=ALL_NODES, instance=Sample-1, generate
  1,  3584,    1
**
**
**
*Elset, elset=_Pload_surface_S6, internal, instance=Sample-1, generate
    1,  673,     4
*Surface, type=ELEMENT, name=Pload_surface
_Pload_surface_S6, S6
*End Assembly
**@@@@@@@@@@@@@@@@@@@@@@@@@@@@@@@@@@@@@@@@@@@@@@@
** 				MATERIAL information		   **
**			     (Overlay elements)
**@@@@@@@@@@@@@@@@@@@@@@@@@@@@@@@@@@@@@@@@@@@@@@@
** 
** MATERIALS
** 
*Material, name=Material-1
*Elastic
 1e-08, 0.03
** ----------------------------------------------------------------
**
**@@@@@@@@@@@@@@@@@@@@@@@@@@@@@@@@@@@@@@@@@@@@@@@
** 		 		STEPS DEFINITIONS 		   	   **
**@@@@@@@@@@@@@@@@@@@@@@@@@@@@@@@@@@@@@@@@@@@@@@@
**
** STEP: Step-1
** 
*Step, name=Step-1, nlgeom=YES, inc=10000
*Static
0.1, 1., 1e-08, 0.1
** 
** BOUNDARY CONDITIONS
** 
** Name: fixX Type: Displacement/Rotation
*Boundary
fixedX_face, 1, 1
fixedX_face, 2, 2
fixedX_face, 3, 3
fixedX_face, 4, 4
fixedX_face, 5, 5
fixedX_face, 6, 6
** Name: fixZ Type: Displacement/Rotation
**Boundary
**fixedZ_face, 3, 3
** Name: loading Type: Displacement/Rotation
*Boundary
Xloading_face, 3, 3
Xloading_face, 4, 4
Xloading_face, 5, 5
Xloading_face, 6, 6
Xloading_face, 2, 2, -0.2e-3
** 
** OUTPUT REQUESTS
** 
*Restart, write, frequency=0
** 
** FIELD OUTPUT: F-Output-1
** 
*Output, field, variable=PRESELECT
** 
** HISTORY OUTPUT: fixedX_face_history
** 
*Output, history
*Node Output, nset=fixedX_face
RF1, RF2, RF3, U1, U2, U3
** 
** HISTORY OUTPUT: fixedY_face_history
** 
**Node Output, nset=fixedY_face
**RF1, RF2, RF3, U1, U2, U3
** 
** HISTORY OUTPUT: Xloading_face_history
** 
*Node Output, nset=Xloading_face
RF1, RF2, RF3, U1, U2, U3
** 
** 
** HISTORY OUTPUT: H-Output-1
** 
*Output, history, variable=PRESELECT
*End Step
