*************************************************
**
** written by Amir Hosein Sakhaei
**
** sakhaei.a@gmail.com 
**
** last modified: 03/August/2018
** University of Exeter
**
**     #####
**    #### _\_  ________
**    ##=-[.].]| \      \
**    #(    _\ |  |------|
**     #   __| |  ||||||||
**      \  _/  |  ||||||||
**   .--'--'-. |  | ____ |
**  / __      `|__|[o__o]|
**_(____nm_______ /____\____
*************************************************
**				START OF THE INPUT		       **
*************************************************
**
**@@@@@@@@@@@@@@@@@@@@@@@@@@@@@@@@@@@@@@@@@@@@@@@
**
** 				HEADING information			   **
**
**@@@@@@@@@@@@@@@@@@@@@@@@@@@@@@@@@@@@@@@@@@@@@@@
**
*Heading
*Preprint, echo=NO, model=NO, history=NO, contact=NO
**
**@@@@@@@@@@@@@@@@@@@@@@@@@@@@@@@@@@@@@@@@@@@@@@@
** 				PARTS information			   **
**@@@@@@@@@@@@@@@@@@@@@@@@@@@@@@@@@@@@@@@@@@@@@@@
**
**
** PARTS
**
*Part, name=Sample
*End Part
**
**  
**@@@@@@@@@@@@@@@@@@@@@@@@@@@@@@@@@@@@@@@@@@@@@@@
** 				ASSEMBLY information		   **
**@@@@@@@@@@@@@@@@@@@@@@@@@@@@@@@@@@@@@@@@@@@@@@@
**  
**
** ASSEMBLY
**
*Assembly, name=Assembly
**  
*Instance, name=Sample-1, part=Sample
*Node
      1, 0.0106499996, 0.000199999995, 0.00499999989
      2, 0.0106499996, 0.000150000007, 0.00499999989
      3, 0.0106499996,  9.99999975e-05, 0.00499999989
      4, 0.0106499996,  4.99999987e-05, 0.00499999989
      5, 0.0106499996,           0., 0.00499999989
      6, 0.0106499996, 0.000199999995, 0.00461538462
      7, 0.0106499996, 0.000150000007, 0.00461538462
      8, 0.0106499996,  9.99999975e-05, 0.00461538462
      9, 0.0106499996,  4.99999987e-05, 0.00461538462
     10, 0.0106499996,           0., 0.00461538462
     11, 0.0106499996, 0.000199999995, 0.00423076935
     12, 0.0106499996, 0.000150000007, 0.00423076935
     13, 0.0106499996,  9.99999975e-05, 0.00423076935
     14, 0.0106499996,  4.99999987e-05, 0.00423076935
     15, 0.0106499996,           0., 0.00423076935
     16, 0.0106499996, 0.000199999995, 0.00384615385
     17, 0.0106499996, 0.000150000007, 0.00384615385
     18, 0.0106499996,  9.99999975e-05, 0.00384615385
     19, 0.0106499996,  4.99999987e-05, 0.00384615385
     20, 0.0106499996,           0., 0.00384615385
** ... 7218 like lines cut
***********************************************
** Element Definitions: UEL elements: #3D20_NL_COS_TUCKER (20nodes)
**********************************************
**
** ELEMENT NUMBER U1
**
*USER ELEMENT, TYPE=U1, NODES=20, COORDINATES=3, PROPERTIES=15, UNSYMM
 1,2,3,4,5,6
 2,1,2,3
 3,1,2,3,4,5,6
 4,1,2,3
 5,1,2,3,4,5,6
 6,1,2,3
 7,1,2,3,4,5,6
 8,1,2,3
 9,1,2,3
 10,1,2,3
 11,1,2,3
 12,1,2,3
 13,1,2,3,4,5,6
 14,1,2,3
 15,1,2,3,4,5,6
 16,1,2,3
 17,1,2,3,4,5,6
 18,1,2,3
 19,1,2,3,4,5,6
 20,1,2,3 
**
*ELEMENT, TYPE=U1, ELSET=UEL_3D20_NL_COS
10001, 72, 1969, 2, 1966, 7, 1971, 77, 1963, 1964, 1965, 1967, 1962, 71, 1970, 1, 1968, 6, 1972, 76, 1961
10002, 73, 1979, 3, 1977, 8, 1980, 78, 1974, 1975, 1976, 1978, 1973, 72, 1969, 2, 1966, 7, 1971, 77, 1963
10003, 74, 1987, 4, 1985, 9, 1988, 79, 1982, 1983, 1984, 1986, 1981, 73, 1979, 3, 1977, 8, 1980, 78, 1974
10004, 75, 1995, 5, 1993, 10, 1996, 80, 1990, 1991, 1992, 1994, 1989, 74, 1987, 4, 1985, 9, 1988, 79, 1982
10005, 77, 1971, 7, 2000, 12, 2003, 82, 1999, 1962, 1967, 2001, 1998, 76, 1972, 6, 2002, 11, 2004, 81, 1997
10006, 78, 1980, 8, 2007, 13, 2009, 83, 2006, 1973, 1978, 2008, 2005, 77, 1971, 7, 2000, 12, 2003, 82, 1999
10007, 79, 1988, 9, 2012, 14, 2014, 84, 2011, 1981, 1986, 2013, 2010, 78, 1980, 8, 2007, 13, 2009, 83, 2006
10008, 80, 1996, 10, 2017, 15, 2019, 85, 2016, 1989, 1994, 2018, 2015, 79, 1988, 9, 2012, 14, 2014, 84, 2011
10009, 82, 2003, 12, 2023, 17, 2026, 87, 2022, 1998, 2001, 2024, 2021, 81, 2004, 11, 2025, 16, 2027, 86, 2020
10010, 83, 2009, 13, 2030, 18, 2032, 88, 2029, 2005, 2008, 2031, 2028, 82, 2003, 12, 2023, 17, 2026, 87, 2022
10011, 84, 2014, 14, 2035, 19, 2037, 89, 2034, 2010, 2013, 2036, 2033, 83, 2009, 13, 2030, 18, 2032, 88, 2029
10012, 85, 2019, 15, 2040, 20, 2042, 90, 2039, 2015, 2018, 2041, 2038, 84, 2014, 14, 2035, 19, 2037, 89, 2034
10013, 87, 2026, 17, 2046, 22, 2049, 92, 2045, 2021, 2024, 2047, 2044, 86, 2027, 16, 2048, 21, 2050, 91, 2043
10014, 88, 2032, 18, 2053, 23, 2055, 93, 2052, 2028, 2031, 2054, 2051, 87, 2026, 17, 2046, 22, 2049, 92, 2045
10015, 89, 2037, 19, 2058, 24, 2060, 94, 2057, 2033, 2036, 2059, 2056, 88, 2032, 18, 2053, 23, 2055, 93, 2052
10016, 90, 2042, 20, 2063, 25, 2065, 95, 2062, 2038, 2041, 2064, 2061, 89, 2037, 19, 2058, 24, 2060, 94, 2057
10017, 92, 2049, 22, 2069, 27, 2072, 97, 2068, 2044, 2047, 2070, 2067, 91, 2050, 21, 2071, 26, 2073, 96, 2066
10018, 93, 2055, 23, 2076, 28, 2078, 98, 2075, 2051, 2054, 2077, 2074, 92, 2049, 22, 2069, 27, 2072, 97, 2068
10019, 94, 2060, 24, 2081, 29, 2083, 99, 2080, 2056, 2059, 2082, 2079, 93, 2055, 23, 2076, 28, 2078, 98, 2075
10020, 95, 2065, 25, 2086, 30, 2088, 100, 2085, 2061, 2064, 2087, 2084, 94, 2060, 24, 2081, 29, 2083, 99, 2080
** ... 1384 like lines cut
**
*UEL PROPERTY, ELSET=UEL_3D20_NL_COS
1.,     0.,     0.,     0.,     1.,     0.,    1e+06,  1e+06
  2e+11,    0.5,   0.75,  5e-10,  300000., 1.,  1e+11
**
***********************************************
**
** Overlay Element Definitions : Brick elements (overlay)
**
**********************************************
**
*Element, type=C3D20, ELSET=Overlay_elements
   1,   71,   72,   77,   76,    1,    2,    7,    6, 1964, 1963, 1962, 1961, 1965, 1966, 1967,
      1968, 1970, 1969, 1971, 1972
   2,   72,   73,   78,   77,    2,    3,    8,    7, 1975, 1974, 1973, 1963, 1976, 1977, 1978,
      1966, 1969, 1979, 1980, 1971
   3,   73,   74,   79,   78,    3,    4,    9,    8, 1983, 1982, 1981, 1974, 1984, 1985, 1986,
      1977, 1979, 1987, 1988, 1980
   4,   74,   75,   80,   79,    4,    5,   10,    9, 1991, 1990, 1989, 1982, 1992, 1993, 1994,
      1985, 1987, 1995, 1996, 1988
   5,   76,   77,   82,   81,    6,    7,   12,   11, 1962, 1999, 1998, 1997, 1967, 2000, 2001,
      2002, 1972, 1971, 2003, 2004
   6,   77,   78,   83,   82,    7,    8,   13,   12, 1973, 2006, 2005, 1999, 1978, 2007, 2008,
      2000, 1971, 1980, 2009, 2003
   7,   78,   79,   84,   83,    8,    9,   14,   13, 1981, 2011, 2010, 2006, 1986, 2012, 2013,
      2007, 1980, 1988, 2014, 2009
   8,   79,   80,   85,   84,    9,   10,   15,   14, 1989, 2016, 2015, 2011, 1994, 2017, 2018,
      2012, 1988, 1996, 2019, 2014
   9,   81,   82,   87,   86,   11,   12,   17,   16, 1998, 2022, 2021, 2020, 2001, 2023, 2024,
      2025, 2004, 2003, 2026, 2027
  10,   82,   83,   88,   87,   12,   13,   18,   17, 2005, 2029, 2028, 2022, 2008, 2030, 2031,
      2023, 2003, 2009, 2032, 2026
** ... 2788 like lines cut
** Section: Section-1
*Solid Section, elset=Overlay_elements, material=Material-1
,
*End Instance
**  
**
*Nset, nset=fixedX_face, instance=Sample-1
 1891, 1892, 1893, 1894, 1895, 1896, 1897, 1898, 1899, 1900, 1901, 1902, 1903, 1904, 1905, 1906
 1907, 1908, 1909, 1910, 1911, 1912, 1913, 1914, 1915, 1916, 1917, 1918, 1919, 1920, 1921, 1922
 1923, 1924, 1925, 1926, 1927, 1928, 1929, 1930, 1931, 1932, 1933, 1934, 1935, 1936, 1937, 1938
 1939, 1940, 1941, 1942, 1943, 1944, 1945, 1946, 1947, 1948, 1949, 1950, 1951, 1952, 1953, 1954
 1955, 1956, 1957, 1958, 1959, 1960, 7048, 7049, 7050, 7051, 7056, 7057, 7058, 7061, 7062, 7063
 7066, 7067, 7068, 7071, 7072, 7073, 7076, 7077, 7079, 7080, 7082, 7083, 7085, 7086, 7087, 7090
 7091, 7093, 7094, 7096, 7097, 7099, 7100, 7101, 7104, 7105, 7107, 7108, 7110, 7111, 7113, 7114
 7115, 7118, 7119, 7121, 7122, 7124, 7125, 7127, 7128, 7129, 7132, 7133, 7135, 7136, 7138, 7139
 7141, 7142, 7143, 7146, 7147, 7149, 7150, 7152, 7153, 7155, 7156, 7157, 7160, 7161, 7163, 7164
 7166, 7167, 7169, 7170, 7171, 7174, 7175, 7177, 7178, 7180, 7181, 7183, 7184, 7185, 7188, 7189
 7191, 7192, 7194, 7195, 7197, 7198, 7199, 7202, 7203, 7205, 7206, 7208, 7209, 7211, 7212, 7213
 7216, 7217, 7219, 7220, 7222, 7223, 7225, 7226, 7227, 7230, 7231, 7233, 7234, 7236, 7237
*Nset, nset=fixedY_face, instance=Sample-1
    5,   10,   15,   20,   25,   30,   35,   40,   45,   50,   55,   60,   65,   70,   75,   80
   85,   90,   95,  100,  105,  110,  115,  120,  125,  130,  135,  140,  145,  150,  155,  160
  165,  170,  175,  180,  185,  190,  195,  200,  205,  210,  215,  220,  225,  230,  235,  240
  245,  250,  255,  260,  265,  270,  275,  280,  285,  290,  295,  300,  305,  310,  315,  320
  325,  330,  335,  340,  345,  350,  355,  360,  365,  370,  375,  380,  385,  390,  395,  400
  405,  410,  415,  420,  425,  430,  435,  440,  445,  450,  455,  460,  465,  470,  475,  480
  485,  490,  495,  500,  505,  510,  515,  520,  525,  530,  535,  540,  545,  550,  555,  560
  565,  570,  575,  580,  585,  590,  595,  600,  605,  610,  615,  620,  625,  630,  635,  640
  645,  650,  655,  660,  665,  670,  675,  680,  685,  690,  695,  700,  705,  710,  715,  720
  725,  730,  735,  740,  745,  750,  755,  760,  765,  770,  775,  780,  785,  790,  795,  800
  805,  810,  815,  820,  825,  830,  835,  840,  845,  850,  855,  860,  865,  870,  875,  880
  885,  890,  895,  900,  905,  910,  915,  920,  925,  930,  935,  940,  945,  950,  955,  960
  965,  970,  975,  980,  985,  990,  995, 1000, 1005, 1010, 1015, 1020, 1025, 1030, 1035, 1040
 1045, 1050, 1055, 1060, 1065, 1070, 1075, 1080, 1085, 1090, 1095, 1100, 1105, 1110, 1115, 1120
 1125, 1130, 1135, 1140, 1145, 1150, 1155, 1160, 1165, 1170, 1175, 1180, 1185, 1190, 1195, 1200
 1205, 1210, 1215, 1220, 1225, 1230, 1235, 1240, 1245, 1250, 1255, 1260, 1265, 1270, 1275, 1280
 1285, 1290, 1295, 1300, 1305, 1310, 1315, 1320, 1325, 1330, 1335, 1340, 1345, 1350, 1355, 1360
 1365, 1370, 1375, 1380, 1385, 1390, 1395, 1400, 1405, 1410, 1415, 1420, 1425, 1430, 1435, 1440
 1445, 1450, 1455, 1460, 1465, 1470, 1475, 1480, 1485, 1490, 1495, 1500, 1505, 1510, 1515, 1520
 1525, 1530, 1535, 1540, 1545, 1550, 1555, 1560, 1565, 1570, 1575, 1580, 1585, 1590, 1595, 1600
** ... 51 like lines cut
*Nset, nset=fixedZ_face, instance=Sample-1
   66,   67,   68,   69,   70,  136,  137,  138,  139,  140,  206,  207,  208,  209,  210,  276
  277,  278,  279,  280,  346,  347,  348,  349,  350,  416,  417,  418,  419,  420,  486,  487
  488,  489,  490,  556,  557,  558,  559,  560,  626,  627,  628,  629,  630,  696,  697,  698
  699,  700,  766,  767,  768,  769,  770,  836,  837,  838,  839,  840,  906,  907,  908,  909
  910,  976,  977,  978,  979,  980, 1046, 1047, 1048, 1049, 1050, 1116, 1117, 1118, 1119, 1120
 1186, 1187, 1188, 1189, 1190, 1256, 1257, 1258, 1259, 1260, 1326, 1327, 1328, 1329, 1330, 1396
 1397, 1398, 1399, 1400, 1466, 1467, 1468, 1469, 1470, 1536, 1537, 1538, 1539, 1540, 1606, 1607
 1608, 1609, 1610, 1676, 1677, 1678, 1679, 1680, 1746, 1747, 1748, 1749, 1750, 1816, 1817, 1818
 1819, 1820, 1886, 1887, 1888, 1889, 1890, 1956, 1957, 1958, 1959, 1960, 2251, 2254, 2256, 2257
 2258, 2261, 2262, 2263, 2266, 2267, 2268, 2271, 2272, 2451, 2453, 2454, 2455, 2457, 2458, 2460
 2461, 2463, 2642, 2644, 2645, 2646, 2648, 2649, 2651, 2652, 2654, 2833, 2835, 2836, 2837, 2839
 2840, 2842, 2843, 2845, 3024, 3026, 3027, 3028, 3030, 3031, 3033, 3034, 3036, 3215, 3217, 3218
 3219, 3221, 3222, 3224, 3225, 3227, 3406, 3408, 3409, 3410, 3412, 3413, 3415, 3416, 3418, 3597
 3599, 3600, 3601, 3603, 3604, 3606, 3607, 3609, 3788, 3790, 3791, 3792, 3794, 3795, 3797, 3798
 3800, 3979, 3981, 3982, 3983, 3985, 3986, 3988, 3989, 3991, 4170, 4172, 4173, 4174, 4176, 4177
 4179, 4180, 4182, 4361, 4363, 4364, 4365, 4367, 4368, 4370, 4371, 4373, 4552, 4554, 4555, 4556
 4558, 4559, 4561, 4562, 4564, 4743, 4745, 4746, 4747, 4749, 4750, 4752, 4753, 4755, 4934, 4936
 4937, 4938, 4940, 4941, 4943, 4944, 4946, 5125, 5127, 5128, 5129, 5131, 5132, 5134, 5135, 5137
 5316, 5318, 5319, 5320, 5322, 5323, 5325, 5326, 5328, 5507, 5509, 5510, 5511, 5513, 5514, 5516
 5517, 5519, 5698, 5700, 5701, 5702, 5704, 5705, 5707, 5708, 5710, 5889, 5891, 5892, 5893, 5895
** ... 5 like lines cut
*Nset, nset=Xloading_face, instance=Sample-1
    1,    2,    3,    4,    5,    6,    7,    8,    9,   10,   11,   12,   13,   14,   15,   16
   17,   18,   19,   20,   21,   22,   23,   24,   25,   26,   27,   28,   29,   30,   31,   32
   33,   34,   35,   36,   37,   38,   39,   40,   41,   42,   43,   44,   45,   46,   47,   48
   49,   50,   51,   52,   53,   54,   55,   56,   57,   58,   59,   60,   61,   62,   63,   64
   65,   66,   67,   68,   69,   70, 1965, 1966, 1967, 1968, 1976, 1977, 1978, 1984, 1985, 1986
 1992, 1993, 1994, 2000, 2001, 2002, 2007, 2008, 2012, 2013, 2017, 2018, 2023, 2024, 2025, 2030
 2031, 2035, 2036, 2040, 2041, 2046, 2047, 2048, 2053, 2054, 2058, 2059, 2063, 2064, 2069, 2070
 2071, 2076, 2077, 2081, 2082, 2086, 2087, 2092, 2093, 2094, 2099, 2100, 2104, 2105, 2109, 2110
 2115, 2116, 2117, 2122, 2123, 2127, 2128, 2132, 2133, 2138, 2139, 2140, 2145, 2146, 2150, 2151
 2155, 2156, 2161, 2162, 2163, 2168, 2169, 2173, 2174, 2178, 2179, 2184, 2185, 2186, 2191, 2192
 2196, 2197, 2201, 2202, 2207, 2208, 2209, 2214, 2215, 2219, 2220, 2224, 2225, 2230, 2231, 2232
 2237, 2238, 2242, 2243, 2247, 2248, 2253, 2254, 2255, 2260, 2261, 2265, 2266, 2270, 2271
*Nset, nset=Yloading_face, instance=Sample-1
    1,    6,   11,   16,   21,   26,   31,   36,   41,   46,   51,   56,   61,   66,   71,   76
   81,   86,   91,   96,  101,  106,  111,  116,  121,  126,  131,  136,  141,  146,  151,  156
  161,  166,  171,  176,  181,  186,  191,  196,  201,  206,  211,  216,  221,  226,  231,  236
  241,  246,  251,  256,  261,  266,  271,  276,  281,  286,  291,  296,  301,  306,  311,  316
  321,  326,  331,  336,  341,  346,  351,  356,  361,  366,  371,  376,  381,  386,  391,  396
  401,  406,  411,  416,  421,  426,  431,  436,  441,  446,  451,  456,  461,  466,  471,  476
  481,  486,  491,  496,  501,  506,  511,  516,  521,  526,  531,  536,  541,  546,  551,  556
  561,  566,  571,  576,  581,  586,  591,  596,  601,  606,  611,  616,  621,  626,  631,  636
  641,  646,  651,  656,  661,  666,  671,  676,  681,  686,  691,  696,  701,  706,  711,  716
  721,  726,  731,  736,  741,  746,  751,  756,  761,  766,  771,  776,  781,  786,  791,  796
  801,  806,  811,  816,  821,  826,  831,  836,  841,  846,  851,  856,  861,  866,  871,  876
  881,  886,  891,  896,  901,  906,  911,  916,  921,  926,  931,  936,  941,  946,  951,  956
  961,  966,  971,  976,  981,  986,  991,  996, 1001, 1006, 1011, 1016, 1021, 1026, 1031, 1036
 1041, 1046, 1051, 1056, 1061, 1066, 1071, 1076, 1081, 1086, 1091, 1096, 1101, 1106, 1111, 1116
 1121, 1126, 1131, 1136, 1141, 1146, 1151, 1156, 1161, 1166, 1171, 1176, 1181, 1186, 1191, 1196
 1201, 1206, 1211, 1216, 1221, 1226, 1231, 1236, 1241, 1246, 1251, 1256, 1261, 1266, 1271, 1276
 1281, 1286, 1291, 1296, 1301, 1306, 1311, 1316, 1321, 1326, 1331, 1336, 1341, 1346, 1351, 1356
 1361, 1366, 1371, 1376, 1381, 1386, 1391, 1396, 1401, 1406, 1411, 1416, 1421, 1426, 1431, 1436
 1441, 1446, 1451, 1456, 1461, 1466, 1471, 1476, 1481, 1486, 1491, 1496, 1501, 1506, 1511, 1516
 1521, 1526, 1531, 1536, 1541, 1546, 1551, 1556, 1561, 1566, 1571, 1576, 1581, 1586, 1591, 1596
** ... 51 like lines cut
*Nset, nset=ALL_NODES, instance=Sample-1, generate
  1,  7238,    1
**
**
**
*Elset, elset=_Pload_surface_S6, internal, instance=Sample-1, generate
    1,  1401,     4
*Surface, type=ELEMENT, name=Pload_surface
_Pload_surface_S6, S6
*End Assembly
**@@@@@@@@@@@@@@@@@@@@@@@@@@@@@@@@@@@@@@@@@@@@@@@
** 				MATERIAL information		   **
**			     (Overlay elements)
**@@@@@@@@@@@@@@@@@@@@@@@@@@@@@@@@@@@@@@@@@@@@@@@
** 
** MATERIALS
** 
*Material, name=Material-1
*Elastic
 1e-08, 0.03
** ----------------------------------------------------------------
**
**@@@@@@@@@@@@@@@@@@@@@@@@@@@@@@@@@@@@@@@@@@@@@@@
** 		 		STEPS DEFINITIONS 		   	   **
**@@@@@@@@@@@@@@@@@@@@@@@@@@@@@@@@@@@@@@@@@@@@@@@
**
** STEP: Step-1
** 
*Step, name=Step-1, nlgeom=YES, inc=10000
*Static
0.1, 1., 1e-08, 0.1
** 
** BOUNDARY CONDITIONS
** 
** Name: fixX Type: Displacement/Rotation
*Boundary
fixedX_face, 1, 1
fixedX_face, 2, 2
fixedX_face, 3, 3
fixedX_face, 4, 4
fixedX_face, 5, 5
fixedX_face, 6, 6
** Name: fixZ Type: Displacement/Rotation
**Boundary
**fixedZ_face, 3, 3
** Name: loading Type: Displacement/Rotation
*Boundary
Xloading_face, 3, 3
Xloading_face, 4, 4
Xloading_face, 5, 5
Xloading_face, 6, 6
Xloading_face, 2, 2, -0.2e-3
** 
** OUTPUT REQUESTS
** 
*Restart, write, frequency=0
** 
** FIELD OUTPUT: F-Output-1
** 
*Output, field, variable=PRESELECT
** 
** HISTORY OUTPUT: fixedX_face_history
** 
*Output, history
*Node Output, nset=fixedX_face
RF1, RF2, RF3, U1, U2, U3
** 
** HISTORY OUTPUT: fixedY_face_history
** 
**Node Output, nset=fixedY_face
**RF1, RF2, RF3, U1, U2, U3
** 
** HISTORY OUTPUT: Xloading_face_history
** 
*Node Output, nset=Xloading_face
RF1, RF2, RF3, U1, U2, U3
** 
** 
** HISTORY OUTPUT: H-Output-1
** 
*Output, history, variable=PRESELECT
*End Step
